Examples/InverterModels/PVSystem/InvControl/MonitoredVoltage/Mon_voltage_average_Mix-2.dss
Clear

New Circuit.TheveninEquivalente bus1=A pu=1.0 basekv=13.8 
~ Z0=[10, 10] Z1=[10, 10]

New Wiredata.CondutorFase GMR=0.0244 DIAM=0.721 RAC=0.306
~ normamps=530
~ Runits=mi RADunits=in GMRunits=ft

New Wiredata.CondutorNeutro GMR=0.00814 DIAM=0.563 RAC=0.592
~ normamps=340
~ Runits=mi RADunits=in GMRunits=ft

New Linegeometry.Poste nconds=3 nphases=3 reduce=No
~ cond=1 wire=CondutorFase     x= -4     h=29   units=ft
~ cond=2 wire=CondutorFase     x= -1.5   h=29   units=ft
~ cond=3 wire=CondutorFase     x= 3      h=29   units=ft

New Line.LineAB bus1=A bus2=B
~ geometry=Poste
~ length=10 units=km
~ earthmodel=Carson

New Transformer.Tr  phases=3 xhl=0.0001  
~ wdg=1 bus=B kV=13.8 kVA=2400 conn=wye
~ wdg=2 bus=C kV=0.48 kVA=2400 conn=wye

New XYCurve.Eff npts=4 xarray=[.1 .2 .4 1.0] yarray=[1 1 1 1]

New XYCurve.FatorPvsT npts=4 xarray=[0 25 75 100] yarray=[1 1 1 1] 

New PVSystem.PV phases=3 bus1=C Pmpp=2000 kV=0.48 kVA=2400 conn=wye EffCurve=Eff 
~ P-TCurve=FatorPvsT %Pmpp=100 Temperature=25 irradiance=1   

New XYcurve.generic npts=5 yarray=[1 1 0 -1 -1] xarray=[0.5 0.92 1.0 1.05 1.5]

New InvControl.VoltVar mode=VOLTVAR voltage_curvex_ref=rated vvc_curve1=generic 
~ deltaQ_factor=0.2 RefReactivePower=VARMAX varchangetolerance=0.0001
~ monVoltageCalc=AVG MonBus=[A.1.2 A.2 C.1.2 C.2] monBusesVbase=[13800 7967.433415 480 277.128129]

Set voltagebases=[13.8 0.48]
Calcvoltagebases

set casename=Mon_voltage_average_difVBase

Set maxcontroli=2000
set maxi=2000

Solve

Show Power kVA elements
Show Voltage LN Nodes
